&NAMGEN
  maxl = $maxl,
  maxb = $maxb,
  mlevel = $mlevel,
  mlevelist = "$mlevelist",
  mnauf = $mnauf,
  metapar = $metapar,
  rlo0 = $rlo0,
  rlo1 = $rlo1,
  rla0 = $rla0,
  rla1 = $rla1,
  momega = $momega,
  momegadiff = $momegadiff,
  mgauss = $mgauss,
  msmooth = $msmooth,
  meta = $meta,
  metadiff = $metadiff,
  mdpdeta = $mdpdeta
/
